data/open_dss/uhs4_1247/uhs4_1247--udt11389/Loads_scenario_20.dss
New Load.load_p1ulv1289 conn=wye bus1=p1ulv1289.1.2 kV=0.2080002494301389 Vminpu=0.8 Vmaxpu=1.2 model=1 kW=10.17 kvar=0.5393722093713369 Phases=2

New Load.load_p1ulv1290 conn=wye bus1=p1ulv1289.1.2 kV=0.2080002494301389 Vminpu=0.8 Vmaxpu=1.2 model=1 kW=10.29 kvar=0.569452865461029 Phases=2

New Load.load_p1ulv1291 conn=wye bus1=p1ulv1291.1.2 kV=0.2080002494301389 Vminpu=0.8 Vmaxpu=1.2 model=1 kW=2.7800300000000004 kvar=0.5601303263507202 Phases=2

New Load.load_p1ulv1292 conn=wye bus1=p1ulv1291.1.2 kV=0.2080002494301389 Vminpu=0.8 Vmaxpu=1.2 model=1 kW=2.75003 kvar=0.5598547025122315 Phases=2

New Load.load_p1ulv1293 conn=wye bus1=p1ulv1293.1.2 kV=0.2080002494301389 Vminpu=0.8 Vmaxpu=1.2 model=1 kW=2.88003 kvar=0.5893205887930111 Phases=2

New Load.load_p1ulv1294 conn=wye bus1=p1ulv1294.1.2 kV=0.2080002494301389 Vminpu=0.8 Vmaxpu=1.2 model=1 kW=10.32 kvar=0.5696736784206362 Phases=2

New Load.load_p1ulv1295 conn=wye bus1=p1ulv1295.1.2 kV=0.2080002494301389 Vminpu=0.8 Vmaxpu=1.2 model=1 kW=10.28 kvar=0.5601303263507202 Phases=2

New Load.load_p1ulv1296 conn=wye bus1=p1ulv1295.1.2 kV=0.2080002494301389 Vminpu=0.8 Vmaxpu=1.2 model=1 kW=10.33 kvar=0.5702045040817287 Phases=2

New Load.load_p1ulv1297 conn=wye bus1=p1ulv1297.1.2 kV=0.2080002494301389 Vminpu=0.8 Vmaxpu=1.2 model=1 kW=2.7600300000000004 kvar=0.5604479951096709 Phases=2

New Load.load_p1ulv1394 conn=wye bus1=p1ulv1394.1.2 kV=0.2080002494301389 Vminpu=0.8 Vmaxpu=1.2 model=1 kW=7.00007 kvar=1.4214248385442743 Phases=2

New Load.load_p1ulv1395 conn=wye bus1=p1ulv1395.1.2.3 kV=0.48 Vminpu=0.8 Vmaxpu=1.2 model=1 kW=32.0003 kvar=6.497938057886329 Phases=3

New Load.load_p1ulv4347 conn=wye bus1=p1ulv4347.1.2.3 kV=0.48 Vminpu=0.8 Vmaxpu=1.2 model=1 kW=31.660299999999996 kvar=6.428898113270765 Phases=3

New Load.load_p1ulv4348 conn=wye bus1=p1ulv4348.1.2.3 kV=0.48 Vminpu=0.8 Vmaxpu=1.2 model=1 kW=33.5403 kvar=6.810648395262694 Phases=3

New Load.load_p1ulv4349 conn=wye bus1=p1ulv4349.1.2 kV=0.2080002494301389 Vminpu=0.8 Vmaxpu=1.2 model=1 kW=3.40003 kvar=0.6904055379154336 Phases=2

New Load.load_p1ulv4350 conn=wye bus1=p1ulv4350.1.2.3 kV=0.48 Vminpu=0.8 Vmaxpu=1.2 model=1 kW=42.0304 kvar=8.534636729911455 Phases=3

New Load.load_p1ulv4352 conn=wye bus1=p1ulv4352.1.2 kV=0.2080002494301389 Vminpu=0.8 Vmaxpu=1.2 model=1 kW=3.95004 kvar=0.8000206635310265 Phases=2

New Load.load_p1ulv4353 conn=wye bus1=p1ulv4353.1.2 kV=0.2080002494301389 Vminpu=0.8 Vmaxpu=1.2 model=1 kW=2.92003 kvar=0.5898746577868357 Phases=2

New Load.load_p1ulv4354 conn=wye bus1=p1ulv4354.1.2 kV=0.2080002494301389 Vminpu=0.8 Vmaxpu=1.2 model=1 kW=12.35 kvar=0.9797575997503596 Phases=2

New Load.load_p1ulv4356 conn=wye bus1=p1ulv4356.1.2 kV=0.2080002494301389 Vminpu=0.8 Vmaxpu=1.2 model=1 kW=3.9800400000000002 kvar=0.8102617463034154 Phases=2

New Load.load_p1ulv4783 conn=wye bus1=p1ulv4783.1.2 kV=0.2080002494301389 Vminpu=0.8 Vmaxpu=1.2 model=1 kW=11.5401 kvar=2.337272143880669 Phases=2

New Load.load_p1ulv4790 conn=wye bus1=p1ulv4790.1.2.3 kV=0.48 Vminpu=0.8 Vmaxpu=1.2 model=1 kW=32.1303 kvar=6.524335683768746 Phases=3

New Load.load_p1ulv4796 conn=wye bus1=p1ulv4796.1.2 kV=0.2080002494301389 Vminpu=0.8 Vmaxpu=1.2 model=1 kW=4.93005 kvar=1.0010893498586726 Phases=2

New Load.load_p1ulv4797 conn=wye bus1=p1ulv4797.1.2 kV=0.2080002494301389 Vminpu=0.8 Vmaxpu=1.2 model=1 kW=1.92002 kvar=0.38987668959050087 Phases=2

New Load.load_p1ulv4802 conn=wye bus1=p1ulv4802.1.2 kV=0.2080002494301389 Vminpu=0.8 Vmaxpu=1.2 model=1 kW=3.70004 kvar=0.7493869570665965 Phases=2

New Load.load_p1ulv4809 conn=wye bus1=p1ulv4809.1.2.3 kV=0.48 Vminpu=0.8 Vmaxpu=1.2 model=1 kW=58.910599999999995 kvar=11.962307533145573 Phases=3

New Load.load_p1ulv4854 conn=wye bus1=p1ulv4854.1.2 kV=0.2080002494301389 Vminpu=0.8 Vmaxpu=1.2 model=1 kW=6.21006 kvar=1.2610064660568046 Phases=2

New Load.load_p1ulv4855 conn=wye bus1=p1ulv4855.1.2.3 kV=0.48 Vminpu=0.8 Vmaxpu=1.2 model=1 kW=39.3904 kvar=7.998561865837683 Phases=3

New Load.load_p1ulv9118 conn=wye bus1=p1ulv9118.1.2.3 kV=0.48 Vminpu=0.8 Vmaxpu=1.2 model=1 kW=50.380499999999984 kvar=10.230196852071451 Phases=3

New Load.load_p1ulv9120 conn=wye bus1=p1ulv9118.1.2.3 kV=0.48 Vminpu=0.8 Vmaxpu=1.2 model=1 kW=39.6104 kvar=8.043234771177163 Phases=3

New Load.load_p1ulv9151 conn=wye bus1=p1ulv9151.1.2.3 kV=0.48 Vminpu=0.8 Vmaxpu=1.2 model=1 kW=20.2902 kvar=4.120100835996073 Phases=3

New Load.load_p1ulv9152 conn=wye bus1=p1ulv9152.1.2.3 kV=0.48 Vminpu=0.8 Vmaxpu=1.2 model=1 kW=34.9703 kvar=7.10102227996932 Phases=3

New Load.load_p1ulv9153 conn=wye bus1=p1ulv9153.1.2.3 kV=0.48 Vminpu=0.8 Vmaxpu=1.2 model=1 kW=46.6405 kvar=9.470757461300279 Phases=3

New Load.load_p1ulv9154 conn=wye bus1=p1ulv9154.1.2 kV=0.2080002494301389 Vminpu=0.8 Vmaxpu=1.2 model=1 kW=4.77005 kvar=0.9710930148829175 Phases=2

New Load.load_p1ulv9155 conn=wye bus1=p1ulv9155.1.2 kV=0.2080002494301389 Vminpu=0.8 Vmaxpu=1.2 model=1 kW=1.38001 kvar=0.28022298226153225 Phases=2

New Load.load_p1ulv9157 conn=wye bus1=p1ulv9157.1.2.3 kV=0.48 Vminpu=0.8 Vmaxpu=1.2 model=1 kW=22.7702 kvar=4.623686314368404 Phases=3

New Load.load_p1ulv9158 conn=wye bus1=p1ulv9158.1.2 kV=0.2080002494301389 Vminpu=0.8 Vmaxpu=1.2 model=1 kW=4.85005 kvar=1.5906895836778168 Phases=2

New Load.load_p1ulv9159 conn=wye bus1=p1ulv9159.1.2.3 kV=0.48 Vminpu=0.8 Vmaxpu=1.2 model=1 kW=35.8704 kvar=11.790030326407893 Phases=3

New Load.load_p1ulv9160 conn=wye bus1=p1ulv9159.1.2.3 kV=0.48 Vminpu=0.8 Vmaxpu=1.2 model=1 kW=93.5309 kvar=18.99225928189299 Phases=3

New Load.load_p1ulv10837 conn=wye bus1=p1ulv10837.1.2.3 kV=0.48 Vminpu=0.8 Vmaxpu=1.2 model=1 kW=46.1405 kvar=9.369228130983275 Phases=3

New Load.load_p1ulv10838 conn=wye bus1=p1ulv10838.1.2.3 kV=0.48 Vminpu=0.8 Vmaxpu=1.2 model=1 kW=39.2904 kvar=7.978255999774281 Phases=3

New Load.load_p1ulv10839 conn=wye bus1=p1ulv10839.1.2.3 kV=0.48 Vminpu=0.8 Vmaxpu=1.2 model=1 kW=71.96070000000002 kvar=14.612243360285392 Phases=3

New Load.load_p1ulv10840 conn=wye bus1=p1ulv10840.1.2.3 kV=0.48 Vminpu=0.8 Vmaxpu=1.2 model=1 kW=31.8503 kvar=6.4674792587912275 Phases=3

New Load.load_p1ulv10841 conn=wye bus1=p1ulv10840.1.2.3 kV=0.48 Vminpu=0.8 Vmaxpu=1.2 model=1 kW=21.5702 kvar=4.3800159216076 Phases=3

New Load.load_p1ulv10842 conn=wye bus1=p1ulv10842.1.2.3 kV=0.48 Vminpu=0.8 Vmaxpu=1.2 model=1 kW=24.770200000000003 kvar=5.029803635636414 Phases=3

New Load.load_p1ulv10843 conn=wye bus1=p1ulv10843.1.2.3 kV=0.48 Vminpu=0.8 Vmaxpu=1.2 model=1 kW=58.22059999999999 kvar=11.82219705730811 Phases=3

New Load.load_p1ulv10844 conn=wye bus1=p1ulv10844.1.2 kV=0.2080002494301389 Vminpu=0.8 Vmaxpu=1.2 model=1 kW=8.36008 kvar=1.7019560155265416 Phases=2

New Load.load_p1ulv10845 conn=wye bus1=p1ulv10845.1.2 kV=0.2080002494301389 Vminpu=0.8 Vmaxpu=1.2 model=1 kW=7.54008 kvar=1.531078545873243 Phases=2

New Load.load_p1ulv10846 conn=wye bus1=p1ulv10846.1.2 kV=0.2080002494301389 Vminpu=0.8 Vmaxpu=1.2 model=1 kW=6.700070000000001 kvar=1.3605072403540732 Phases=2

New Load.load_p1ulv10847 conn=wye bus1=p1ulv10847.1.2 kV=0.2080002494301389 Vminpu=0.8 Vmaxpu=1.2 model=1 kW=6.76007 kvar=1.3691496002359942 Phases=2

New Load.load_p1ulv10848 conn=wye bus1=p1ulv10848.1.2 kV=0.2080002494301389 Vminpu=0.8 Vmaxpu=1.2 model=1 kW=17.7602 kvar=3.606362424592043 Phases=2

New Load.load_p1ulv10849 conn=wye bus1=p1ulv10849.1.2 kV=0.2080002494301389 Vminpu=0.8 Vmaxpu=1.2 model=1 kW=18.4902 kvar=3.7545952468548665 Phases=2

New Load.load_p1ulv10850 conn=wye bus1=p1ulv10850.1.2 kV=0.2080002494301389 Vminpu=0.8 Vmaxpu=1.2 model=1 kW=18.5002 kvar=3.7566258334612064 Phases=2

New Load.load_p1ulv10851 conn=wye bus1=p1ulv10851.1.2 kV=0.2080002494301389 Vminpu=0.8 Vmaxpu=1.2 model=1 kW=7.44007 kvar=1.5107706492232365 Phases=2

New Load.load_p1ulv10852 conn=wye bus1=p1ulv10852.1.2.3 kV=0.48 Vminpu=0.8 Vmaxpu=1.2 model=1 kW=20.9002 kvar=4.2439666189828165 Phases=3

New Load.load_p1ulv10853 conn=wye bus1=p1ulv10852.1.2.3 kV=0.48 Vminpu=0.8 Vmaxpu=1.2 model=1 kW=55.07059999999999 kvar=11.182562276310994 Phases=3

New Load.load_p1ulv10854 conn=wye bus1=p1ulv10854.1.2.3 kV=0.48 Vminpu=0.8 Vmaxpu=1.2 model=1 kW=169.752 kvar=34.4696137599435 Phases=3

New Load.load_p1ulv10855 conn=wye bus1=p1ulv10855.1.2 kV=0.2080002494301389 Vminpu=0.8 Vmaxpu=1.2 model=1 kW=16.7302 kvar=3.397212004139019 Phases=2

New Load.load_p1ulv10856 conn=wye bus1=p1ulv10856.1.2 kV=0.2080002494301389 Vminpu=0.8 Vmaxpu=1.2 model=1 kW=7.74008 kvar=1.5716902780000437 Phases=2

New Load.load_p1ulv10857 conn=wye bus1=p1ulv10857.1.2 kV=0.2080002494301389 Vminpu=0.8 Vmaxpu=1.2 model=1 kW=5.58006 kvar=1.1301564803756265 Phases=2

New Load.load_p1ulv10858 conn=wye bus1=p1ulv10858.1.2 kV=0.2080002494301389 Vminpu=0.8 Vmaxpu=1.2 model=1 kW=7.98008 kvar=1.6204243565522047 Phases=2

New Load.load_p1ulv10859 conn=wye bus1=p1ulv10859.1.2 kV=0.2080002494301389 Vminpu=0.8 Vmaxpu=1.2 model=1 kW=5.24005 kvar=1.0612926142357433 Phases=2

New Load.load_p1ulv10860 conn=wye bus1=p1ulv10860.1.2 kV=0.2080002494301389 Vminpu=0.8 Vmaxpu=1.2 model=1 kW=4.31004 kvar=0.8706702910749454 Phases=2

New Load.load_p1ulv10861 conn=wye bus1=p1ulv10861.1.2.3 kV=0.48 Vminpu=0.8 Vmaxpu=1.2 model=1 kW=27.400300000000005 kvar=5.563868218969908 Phases=3

New Load.load_p1ulv10862 conn=wye bus1=p1ulv10862.1.2.3 kV=0.48 Vminpu=0.8 Vmaxpu=1.2 model=1 kW=41.53039999999999 kvar=8.43310739959445 Phases=3

New Load.load_p1ulv10863 conn=wye bus1=p1ulv10863.1.2 kV=0.2080002494301389 Vminpu=0.8 Vmaxpu=1.2 model=1 kW=18.360200000000003 kvar=3.7281976209724457 Phases=2

New Load.load_p1ulv10864 conn=wye bus1=p1ulv10864.1.2.3 kV=0.48 Vminpu=0.8 Vmaxpu=1.2 model=1 kW=20.700200000000002 kvar=4.203354886856015 Phases=3

New Load.load_p1ulv10865 conn=wye bus1=p1ulv10865.1.2.3 kV=0.48 Vminpu=0.8 Vmaxpu=1.2 model=1 kW=28.360299999999995 kvar=5.758804533178552 Phases=3

New Load.load_p1ulv10866 conn=wye bus1=p1ulv10866.1.2 kV=0.2080002494301389 Vminpu=0.8 Vmaxpu=1.2 model=1 kW=7.91008 kvar=1.610344427241867 Phases=2

New Load.load_p1ulv10868 conn=wye bus1=p1ulv10868.1.2.3 kV=0.48 Vminpu=0.8 Vmaxpu=1.2 model=1 kW=50.400499999999994 kvar=10.23425802528413 Phases=3

New Load.load_p1ulv10869 conn=wye bus1=p1ulv10869.1.2.3 kV=0.48 Vminpu=0.8 Vmaxpu=1.2 model=1 kW=177.71200000000002 kvar=36.08596069859017 Phases=3

New Load.load_p1ulv10870 conn=wye bus1=p1ulv10870.1.2.3 kV=0.48 Vminpu=0.8 Vmaxpu=1.2 model=1 kW=136.391 kvar=27.695373782532474 Phases=3

New Load.load_p1ulv10871 conn=wye bus1=p1ulv10870.1.2.3 kV=0.48 Vminpu=0.8 Vmaxpu=1.2 model=1 kW=29.7503 kvar=6.041056071459818 Phases=3

New Load.load_p1ulv10872 conn=wye bus1=p1ulv10872.1.2.3 kV=0.48 Vminpu=0.8 Vmaxpu=1.2 model=1 kW=35.5404 kvar=7.216786022396765 Phases=3

New Load.load_p1ulv10873 conn=wye bus1=p1ulv10872.1.2.3 kV=0.48 Vminpu=0.8 Vmaxpu=1.2 model=1 kW=35.3804 kvar=7.184296636695326 Phases=3

New Load.load_p1ulv10874 conn=wye bus1=p1ulv10874.1.2.3 kV=0.48 Vminpu=0.8 Vmaxpu=1.2 model=1 kW=59.610600000000005 kvar=12.104448595589378 Phases=3

New Load.load_p1ulv10875 conn=wye bus1=p1ulv10875.1.2.3 kV=0.48 Vminpu=0.8 Vmaxpu=1.2 model=1 kW=324.0330000000001 kvar=65.79770698121833 Phases=3

New Load.load_p1ulv10876 conn=wye bus1=p1ulv10876.1.2 kV=0.2080002494301389 Vminpu=0.8 Vmaxpu=1.2 model=1 kW=13.8901 kvar=2.8205051020723833 Phases=2

New Load.load_p1ulv10877 conn=wye bus1=p1ulv10877.1.2.3 kV=0.48 Vminpu=0.8 Vmaxpu=1.2 model=1 kW=38.0904 kvar=7.734585607013479 Phases=3

New Load.load_p1ulv10878 conn=wye bus1=p1ulv10878.1.2.3 kV=0.48 Vminpu=0.8 Vmaxpu=1.2 model=1 kW=184.63200000000003 kvar=37.49112663017748 Phases=3

New Load.load_p1ulv10879 conn=wye bus1=p1ulv10879.1.2.3 kV=0.48 Vminpu=0.8 Vmaxpu=1.2 model=1 kW=48.0005 kvar=9.746917239762524 Phases=3

New Load.load_p1ulv10880 conn=wye bus1=p1ulv10880.1.2.3 kV=0.48 Vminpu=0.8 Vmaxpu=1.2 model=1 kW=32.5003 kvar=6.599467388203331 Phases=3

New Load.load_p1ulv10881 conn=wye bus1=p1ulv10881.1.2 kV=0.2080002494301389 Vminpu=0.8 Vmaxpu=1.2 model=1 kW=13.590100000000001 kvar=2.7595875038821815 Phases=2

New Load.load_p1ulv10882 conn=wye bus1=p1ulv10880.1.2.3 kV=0.48 Vminpu=0.8 Vmaxpu=1.2 model=1 kW=125.721 kvar=25.52873787356765 Phases=3

New Load.load_p1ulv11181 conn=wye bus1=p1ulv11181.1.2 kV=0.2080002494301389 Vminpu=0.8 Vmaxpu=1.2 model=1 kW=3.70004 kvar=0.7493869570665965 Phases=2

New Load.load_p1ulv11182 conn=wye bus1=p1ulv11182.1.2 kV=0.2080002494301389 Vminpu=0.8 Vmaxpu=1.2 model=1 kW=13.7801 kvar=2.7981686494026423 Phases=2

New Load.load_p1ulv11183 conn=wye bus1=p1ulv11183.1.2 kV=0.2080002494301389 Vminpu=0.8 Vmaxpu=1.2 model=1 kW=4.39004 kvar=0.8891359869084231 Phases=2

New Load.load_p1ulv11184 conn=wye bus1=p1ulv11184.1.2 kV=0.2080002494301389 Vminpu=0.8 Vmaxpu=1.2 model=1 kW=8.78009 kvar=1.7782739991651049 Phases=2

New Load.load_p1ulv11185 conn=wye bus1=p1ulv11185.1.2 kV=0.2080002494301389 Vminpu=0.8 Vmaxpu=1.2 model=1 kW=3.11003 kvar=0.6298893844622836 Phases=2

New Load.load_p1ulv11186 conn=wye bus1=p1ulv11186.1.2 kV=0.2080002494301389 Vminpu=0.8 Vmaxpu=1.2 model=1 kW=10.7701 kvar=2.192591037743946 Phases=2

New Load.load_p1ulv11187 conn=wye bus1=p1ulv11187.1.2.3 kV=0.48 Vminpu=0.8 Vmaxpu=1.2 model=1 kW=29.4803 kvar=5.986230233088637 Phases=3

New Load.load_p1ulv11188 conn=wye bus1=p1ulv11188.1.2.3 kV=0.48 Vminpu=0.8 Vmaxpu=1.2 model=1 kW=20.9002 kvar=4.2439666189828165 Phases=3

New Load.load_p1ulv11189 conn=wye bus1=p1ulv11189.1.2 kV=0.2080002494301389 Vminpu=0.8 Vmaxpu=1.2 model=1 kW=4.90005 kvar=0.9898580894334593 Phases=2

New Load.load_p1ulv11190 conn=wye bus1=p1ulv11190.1.2 kV=0.2080002494301389 Vminpu=0.8 Vmaxpu=1.2 model=1 kW=5.520060000000001 kvar=1.1208959902193418 Phases=2

New Load.load_p1ulv11191 conn=wye bus1=p1ulv11191.1.2 kV=0.2080002494301389 Vminpu=0.8 Vmaxpu=1.2 model=1 kW=2.83003 kvar=0.580558608517704 Phases=2

New Load.load_p1ulv11192 conn=wye bus1=p1ulv11192.1.2 kV=0.2080002494301389 Vminpu=0.8 Vmaxpu=1.2 model=1 kW=3.0700300000000005 kvar=0.620176126836135 Phases=2

New Load.load_p1ulv11193 conn=wye bus1=p1ulv11193.1.2 kV=0.2080002494301389 Vminpu=0.8 Vmaxpu=1.2 model=1 kW=3.82004 kvar=0.7796807647859518 Phases=2

New Load.load_p1ulv11194 conn=wye bus1=p1ulv11194.1.2 kV=0.2080002494301389 Vminpu=0.8 Vmaxpu=1.2 model=1 kW=4.03004 kvar=0.8204408116683792 Phases=2

New Load.load_p1ulv11195 conn=wye bus1=p1ulv11195.1.2 kV=0.2080002494301389 Vminpu=0.8 Vmaxpu=1.2 model=1 kW=5.05005 kvar=1.0307292191200343 Phases=2

New Load.load_p1ulv11196 conn=wye bus1=p1ulv11196.1.2 kV=0.2080002494301389 Vminpu=0.8 Vmaxpu=1.2 model=1 kW=5.04005 kvar=1.0207856490641993 Phases=2

New Load.load_p1ulv11197 conn=wye bus1=p1ulv11197.1.2 kV=0.2080002494301389 Vminpu=0.8 Vmaxpu=1.2 model=1 kW=4.46004 kvar=0.9009717601242447 Phases=2

New Load.load_p1ulv11198 conn=wye bus1=p1ulv11198.1.2 kV=0.2080002494301389 Vminpu=0.8 Vmaxpu=1.2 model=1 kW=19.5602 kvar=3.97186801373325 Phases=2

New Load.load_p1ulv11199 conn=wye bus1=p1ulv11199.1.2 kV=0.2080002494301389 Vminpu=0.8 Vmaxpu=1.2 model=1 kW=10.680100000000001 kvar=2.1686868014372296 Phases=2

New Load.load_p1ulv11200 conn=wye bus1=p1ulv11200.1.2 kV=0.2080002494301389 Vminpu=0.8 Vmaxpu=1.2 model=1 kW=8.07008 kvar=1.6386996360092656 Phases=2

New Load.load_p1ulv11201 conn=wye bus1=p1ulv11201.1.2 kV=0.2080002494301389 Vminpu=0.8 Vmaxpu=1.2 model=1 kW=3.3000300000000005 kvar=0.6700996718520332 Phases=2

New Load.load_p1ulv11202 conn=wye bus1=p1ulv11202.1.2 kV=0.2080002494301389 Vminpu=0.8 Vmaxpu=1.2 model=1 kW=6.69007 kvar=1.358476653747733 Phases=2

New Load.load_p1ulv11203 conn=wye bus1=p1ulv11203.1.2 kV=0.2080002494301389 Vminpu=0.8 Vmaxpu=1.2 model=1 kW=7.22007 kvar=1.4698712893922927 Phases=2

New Load.load_p1ulv11204 conn=wye bus1=p1ulv11204.1.2.3 kV=0.48 Vminpu=0.8 Vmaxpu=1.2 model=1 kW=20.9502 kvar=4.254119552014517 Phases=3

New Load.load_p1ulv11205 conn=wye bus1=p1ulv11205.1.2 kV=0.2080002494301389 Vminpu=0.8 Vmaxpu=1.2 model=1 kW=15.2802 kvar=3.102776946219713 Phases=2

New Load.load_p1ulv11206 conn=wye bus1=p1ulv11206.1.2.3 kV=0.48 Vminpu=0.8 Vmaxpu=1.2 model=1 kW=52.03050000000002 kvar=10.565243642117563 Phases=3

New Load.load_p1ulv11207 conn=wye bus1=p1ulv11207.1.2 kV=0.2080002494301389 Vminpu=0.8 Vmaxpu=1.2 model=1 kW=5.640060000000001 kvar=1.1393473568412724 Phases=2

New Load.load_p1ulv11260 conn=wye bus1=p1ulv11260.1.2 kV=0.2080002494301389 Vminpu=0.8 Vmaxpu=1.2 model=1 kW=3.48003 kvar=0.71028378024263 Phases=2

New Load.load_p1ulv11271 conn=wye bus1=p1ulv11271.1.2 kV=0.2080002494301389 Vminpu=0.8 Vmaxpu=1.2 model=1 kW=4.79005 kvar=0.9701519425997696 Phases=2

New Load.load_p1ulv11272 conn=wye bus1=p1ulv11272.1.2 kV=0.2080002494301389 Vminpu=0.8 Vmaxpu=1.2 model=1 kW=3.0500300000000005 kvar=0.6193350066935321 Phases=2

New Load.load_p1ulv17889 conn=wye bus1=p1ulv17889.1.2 kV=0.2080002494301389 Vminpu=0.8 Vmaxpu=1.2 model=1 kW=4.53005 kvar=0.9198658856050712 Phases=2

New Load.load_p1ulv17894 conn=wye bus1=p1ulv17894.1.2 kV=0.2080002494301389 Vminpu=0.8 Vmaxpu=1.2 model=1 kW=3.47003 kvar=0.7100482018344989 Phases=2

New Load.load_p1ulv17898 conn=wye bus1=p1ulv17898.1.2 kV=0.2080002494301389 Vminpu=0.8 Vmaxpu=1.2 model=1 kW=4.04004 kvar=0.8203651113078028 Phases=2

New Load.load_p1ulv17907 conn=wye bus1=p1ulv17907.1.2 kV=0.2080002494301389 Vminpu=0.8 Vmaxpu=1.2 model=1 kW=3.9800400000000002 kvar=0.8102617463034154 Phases=2

New Load.load_p1ulv17908 conn=wye bus1=p1ulv17889.1.2 kV=0.2080002494301389 Vminpu=0.8 Vmaxpu=1.2 model=1 kW=4.36004 kvar=0.8807707807580453 Phases=2

New Load.load_p1ulv17911 conn=wye bus1=p1ulv17911.1.2 kV=0.2080002494301389 Vminpu=0.8 Vmaxpu=1.2 model=1 kW=3.97004 kvar=0.8102961810428216 Phases=2

New Load.load_p1ulv17916 conn=wye bus1=p1ulv17916.1.2 kV=0.2080002494301389 Vminpu=0.8 Vmaxpu=1.2 model=1 kW=4.00004 kvar=0.8101474048239126 Phases=2

New Load.load_p1ulv17921 conn=wye bus1=p1ulv17921.1.2 kV=0.2080002494301389 Vminpu=0.8 Vmaxpu=1.2 model=1 kW=3.78004 kvar=0.7695454848435601 Phases=2

New Load.load_p1ulv17925 conn=wye bus1=p1ulv17925.1.2 kV=0.2080002494301389 Vminpu=0.8 Vmaxpu=1.2 model=1 kW=4.13004 kvar=0.840798942398307 Phases=2

New Load.load_p1ulv24198 conn=wye bus1=p1ulv24198.1.2 kV=0.2080002494301389 Vminpu=0.8 Vmaxpu=1.2 model=1 kW=16.1002 kvar=3.269285047939596 Phases=2

New Load.load_p1ulv24199 conn=wye bus1=p1ulv24199.1.2.3 kV=0.48 Vminpu=0.8 Vmaxpu=1.2 model=1 kW=38.610400000000006 kvar=7.84017611054316 Phases=3

New Load.load_p1ulv24200 conn=wye bus1=p1ulv24200.1.2.3 kV=0.48 Vminpu=0.8 Vmaxpu=1.2 model=1 kW=39.0904 kvar=12.848393145083833 Phases=3

New Load.load_p1ulv24201 conn=wye bus1=p1ulv24201.1.2 kV=0.2080002494301389 Vminpu=0.8 Vmaxpu=1.2 model=1 kW=9.17009 kvar=3.0108075329345856 Phases=2

New Load.load_p1ulv24202 conn=wye bus1=p1ulv24202.1.2.3 kV=0.48 Vminpu=0.8 Vmaxpu=1.2 model=1 kW=35.36039999999999 kvar=7.180235463482645 Phases=3

New Load.load_p1ulv24203 conn=wye bus1=p1ulv24203.1.2.3 kV=0.48 Vminpu=0.8 Vmaxpu=1.2 model=1 kW=39.510400000000004 kvar=8.022928905113762 Phases=3

New Load.load_p1ulv24207 conn=wye bus1=p1ulv24207.1.2 kV=0.2080002494301389 Vminpu=0.8 Vmaxpu=1.2 model=1 kW=16.6302 kvar=3.3769061380756176 Phases=2

New Load.load_p1ulv24208 conn=wye bus1=p1ulv24208.1.2 kV=0.2080002494301389 Vminpu=0.8 Vmaxpu=1.2 model=1 kW=13.0401 kvar=2.6479052405334795 Phases=2

New Load.load_p1ulv24209 conn=wye bus1=p1ulv24209.1.2 kV=0.2080002494301389 Vminpu=0.8 Vmaxpu=1.2 model=1 kW=4.96005 kvar=1.0097734632697801 Phases=2

New Load.load_p1ulv24210 conn=wye bus1=p1ulv24209.1.2 kV=0.2080002494301389 Vminpu=0.8 Vmaxpu=1.2 model=1 kW=4.64005 kvar=0.9397717187211114 Phases=2

New Load.load_p1ulv24211 conn=wye bus1=p1ulv24211.1.2 kV=0.2080002494301389 Vminpu=0.8 Vmaxpu=1.2 model=1 kW=4.95005 kvar=0.999958579116559 Phases=2

New Load.load_p1ulv24212 conn=wye bus1=p1ulv24211.1.2 kV=0.2080002494301389 Vminpu=0.8 Vmaxpu=1.2 model=1 kW=4.80005 kvar=0.9696571100672596 Phases=2

New Load.load_p1ulv24213 conn=wye bus1=p1ulv24213.1.2 kV=0.2080002494301389 Vminpu=0.8 Vmaxpu=1.2 model=1 kW=5.67006 kvar=1.1513547893144422 Phases=2

New Load.load_p1ulv24214 conn=wye bus1=p1ulv24214.1.2 kV=0.2080002494301389 Vminpu=0.8 Vmaxpu=1.2 model=1 kW=3.92004 kvar=0.8000910422905317 Phases=2

New Load.load_p1ulv24215 conn=wye bus1=p1ulv24214.1.2 kV=0.2080002494301389 Vminpu=0.8 Vmaxpu=1.2 model=1 kW=4.08004 kvar=0.8306198770333432 Phases=2

New Load.load_p1ulv24216 conn=wye bus1=p1ulv24216.1.2 kV=0.2080002494301389 Vminpu=0.8 Vmaxpu=1.2 model=1 kW=4.01004 kvar=0.810067352976347 Phases=2

New Load.load_p1ulv24217 conn=wye bus1=p1ulv24216.1.2 kV=0.2080002494301389 Vminpu=0.8 Vmaxpu=1.2 model=1 kW=7.10007 kvar=1.4417307046076748 Phases=2

New Load.load_p1ulv24225 conn=wye bus1=p1ulv24225.1.2.3 kV=0.48 Vminpu=0.8 Vmaxpu=1.2 model=1 kW=131.531 kvar=26.70850869185122 Phases=3

New Load.load_p1ulv24226 conn=wye bus1=p1ulv24226.1.2 kV=0.2080002494301389 Vminpu=0.8 Vmaxpu=1.2 model=1 kW=5.50006 kvar=1.119709405024463 Phases=2

New Load.load_p1ulv24227 conn=wye bus1=p1ulv24227.1.2 kV=0.2080002494301389 Vminpu=0.8 Vmaxpu=1.2 model=1 kW=5.33005 kvar=1.0795207485629381 Phases=2

New Load.load_p1ulv24228 conn=wye bus1=p1ulv24228.1.2 kV=0.2080002494301389 Vminpu=0.8 Vmaxpu=1.2 model=1 kW=10.2001 kvar=2.0712186443329075 Phases=2

New Load.load_p1ulv24229 conn=wye bus1=p1ulv24229.1.2 kV=0.2080002494301389 Vminpu=0.8 Vmaxpu=1.2 model=1 kW=9.08009 kvar=1.8390344469224207 Phases=2

New Load.load_p1ulv26004 conn=wye bus1=p1ulv26004.1.2 kV=0.2080002494301389 Vminpu=0.8 Vmaxpu=1.2 model=1 kW=13.3901 kvar=2.7189757717553813 Phases=2

New Load.load_p1ulv26033 conn=wye bus1=p1ulv26033.1.2 kV=0.2080002494301389 Vminpu=0.8 Vmaxpu=1.2 model=1 kW=10.1501 kvar=2.061065711301207 Phases=2

New Load.load_p1ulv26069 conn=wye bus1=p1ulv26069.1.2 kV=0.2080002494301389 Vminpu=0.8 Vmaxpu=1.2 model=1 kW=1.38001 kvar=0.28022298226153225 Phases=2

New Load.load_p1ulv26098 conn=wye bus1=p1ulv26098.1.2.3 kV=0.48 Vminpu=0.8 Vmaxpu=1.2 model=1 kW=100.411 kvar=20.389323172921006 Phases=3

New Load.load_p1ulv26133 conn=wye bus1=p1ulv26133.1.2 kV=0.2080002494301389 Vminpu=0.8 Vmaxpu=1.2 model=1 kW=3.78004 kvar=0.7695454848435601 Phases=2

New Load.load_p1ulv26203 conn=wye bus1=p1ulv26203.1.2 kV=0.2080002494301389 Vminpu=0.8 Vmaxpu=1.2 model=1 kW=7.31007 kvar=1.4881936070492277 Phases=2

New Load.load_p1ulv26208 conn=wye bus1=p1ulv26208.1.2 kV=0.2080002494301389 Vminpu=0.8 Vmaxpu=1.2 model=1 kW=9.6501 kvar=1.959536380984205 Phases=2

New Load.load_p1ulv26270 conn=wye bus1=p1ulv26270.1.2 kV=0.2080002494301389 Vminpu=0.8 Vmaxpu=1.2 model=1 kW=4.08004 kvar=0.8306198770333432 Phases=2

New Load.load_p1ulv26443 conn=wye bus1=p1ulv26443.1.2 kV=0.2080002494301389 Vminpu=0.8 Vmaxpu=1.2 model=1 kW=4.03004 kvar=0.8204408116683792 Phases=2

New Load.load_p1ulv26481 conn=wye bus1=p1ulv26481.1.2 kV=0.2080002494301389 Vminpu=0.8 Vmaxpu=1.2 model=1 kW=3.95004 kvar=0.8000206635310265 Phases=2

New Load.load_p1ulv26646 conn=wye bus1=p1ulv26646.1.2 kV=0.2080002494301389 Vminpu=0.8 Vmaxpu=1.2 model=1 kW=5.07005 kvar=1.0295175623474335 Phases=2

New Load.load_p1ulv26659 conn=wye bus1=p1ulv26659.1.2.3 kV=0.48 Vminpu=0.8 Vmaxpu=1.2 model=1 kW=129.791 kvar=26.355186622348054 Phases=3

New Load.load_p1ulv26707 conn=wye bus1=p1ulv26707.1.2 kV=0.2080002494301389 Vminpu=0.8 Vmaxpu=1.2 model=1 kW=4.65005 kvar=0.9490881091017151 Phases=2

New Load.load_p1ulv26773 conn=wye bus1=p1ulv26773.1.2 kV=0.2080002494301389 Vminpu=0.8 Vmaxpu=1.2 model=1 kW=13.7001 kvar=2.781923956551922 Phases=2

New Load.load_p1ulv26802 conn=wye bus1=p1ulv26802.1.2.3 kV=0.48 Vminpu=0.8 Vmaxpu=1.2 model=1 kW=107.281 kvar=21.784336171476614 Phases=3

New Load.load_p1ulv26826 conn=wye bus1=p1ulv26826.1.2.3 kV=0.48 Vminpu=0.8 Vmaxpu=1.2 model=1 kW=29.5703 kvar=6.0045055125456965 Phases=3

New Load.load_p1ulv26862 conn=wye bus1=p1ulv26133.1.2 kV=0.2080002494301389 Vminpu=0.8 Vmaxpu=1.2 model=1 kW=3.82004 kvar=0.7796807647859518 Phases=2

New Load.load_p1ulv26875 conn=wye bus1=p1ulv26875.1.2.3 kV=0.48 Vminpu=0.8 Vmaxpu=1.2 model=1 kW=293.883 kvar=59.675488363103085 Phases=3

New Load.load_p1ulv26932 conn=wye bus1=p1ulv26932.1.2 kV=0.2080002494301389 Vminpu=0.8 Vmaxpu=1.2 model=1 kW=3.54004 kvar=0.7206859710917335 Phases=2

New Load.load_p1ulv27001 conn=wye bus1=p1ulv27001.1.2 kV=0.2080002494301389 Vminpu=0.8 Vmaxpu=1.2 model=1 kW=2.95003 kvar=0.6005709639720869 Phases=2

New Load.load_p1ulv27072 conn=wye bus1=p1ulv27072.1.2 kV=0.2080002494301389 Vminpu=0.8 Vmaxpu=1.2 model=1 kW=2.71003 kvar=0.5502950620779706 Phases=2

New Load.load_p1ulv27150 conn=wye bus1=p1ulv27150.1.2 kV=0.2080002494301389 Vminpu=0.8 Vmaxpu=1.2 model=1 kW=4.38004 kvar=0.8894050559233643 Phases=2

New Load.load_p1ulv27180 conn=wye bus1=p1ulv27180.1.2.3 kV=0.48 Vminpu=0.8 Vmaxpu=1.2 model=1 kW=32.16030000000001 kvar=6.530427443587768 Phases=3

New Load.load_p1ulv27215 conn=wye bus1=p1ulv27215.1.2 kV=0.2080002494301389 Vminpu=0.8 Vmaxpu=1.2 model=1 kW=5.91006 kvar=1.200088867866603 Phases=2

New Load.load_p1ulv27235 conn=wye bus1=p1ulv27235.1.2 kV=0.2080002494301389 Vminpu=0.8 Vmaxpu=1.2 model=1 kW=3.70004 kvar=0.7493869570665965 Phases=2

New Load.load_p1ulv27276 conn=wye bus1=p1ulv27276.1.2 kV=0.2080002494301389 Vminpu=0.8 Vmaxpu=1.2 model=1 kW=3.0100300000000004 kvar=0.6096359018765115 Phases=2

New Load.load_p1ulv27319 conn=wye bus1=p1ulv27319.1.2 kV=0.2080002494301389 Vminpu=0.8 Vmaxpu=1.2 model=1 kW=3.9400400000000007 kvar=0.8000592452444024 Phases=2

New Load.load_p1ulv27382 conn=wye bus1=p1ulv27382.1.2 kV=0.2080002494301389 Vminpu=0.8 Vmaxpu=1.2 model=1 kW=4.18004 kvar=0.8509780077632708 Phases=2

New Load.load_p1ulv27656 conn=wye bus1=p1ulv27656.1.2 kV=0.2080002494301389 Vminpu=0.8 Vmaxpu=1.2 model=1 kW=4.04004 kvar=0.8203651113078028 Phases=2

New Load.load_p1ulv27681 conn=wye bus1=p1ulv27681.1.2 kV=0.2080002494301389 Vminpu=0.8 Vmaxpu=1.2 model=1 kW=9.19009 kvar=1.870930536398015 Phases=2

New Load.load_p1ulv27720 conn=wye bus1=p1ulv27720.1.2 kV=0.2080002494301389 Vminpu=0.8 Vmaxpu=1.2 model=1 kW=4.21004 kvar=0.8592808470538134 Phases=2

New Load.load_p1ulv27733 conn=wye bus1=p1ulv27733.1.2.3 kV=0.48 Vminpu=0.8 Vmaxpu=1.2 model=1 kW=144.861 kvar=29.4152806381025 Phases=3

New Load.load_p1ulv27785 conn=wye bus1=p1ulv27785.1.2 kV=0.2080002494301389 Vminpu=0.8 Vmaxpu=1.2 model=1 kW=8.38008 kvar=1.7016478208058066 Phases=2

New Load.load_p1ulv27861 conn=wye bus1=p1ulv27861.1.2 kV=0.2080002494301389 Vminpu=0.8 Vmaxpu=1.2 model=1 kW=14.680100000000001 kvar=4.819904239133205 Phases=2

New Load.load_p1ulv27925 conn=wye bus1=p1ulv27925.1.2.3 kV=0.48 Vminpu=0.8 Vmaxpu=1.2 model=1 kW=27.000300000000003 kvar=5.482644754716306 Phases=3

New Load.load_p1ulv27996 conn=wye bus1=p1ulv27996.1.2 kV=0.2080002494301389 Vminpu=0.8 Vmaxpu=1.2 model=1 kW=7.61008 kvar=1.5492700350520838 Phases=2

New Load.load_p1ulv28028 conn=wye bus1=p1ulv28028.1.2 kV=0.2080002494301389 Vminpu=0.8 Vmaxpu=1.2 model=1 kW=18.0602 kvar=3.667280022782244 Phases=2

New Load.load_p1ulv28075 conn=wye bus1=p1ulv28075.1.2 kV=0.2080002494301389 Vminpu=0.8 Vmaxpu=1.2 model=1 kW=4.80005 kvar=0.9797035253585847 Phases=2

New Load.load_p1ulv28129 conn=wye bus1=p1ulv28129.1.2 kV=0.2080002494301389 Vminpu=0.8 Vmaxpu=1.2 model=1 kW=3.48003 kvar=0.71028378024263 Phases=2

New Load.load_p1ulv28208 conn=wye bus1=p1ulv28208.1.2 kV=0.2080002494301389 Vminpu=0.8 Vmaxpu=1.2 model=1 kW=4.36004 kvar=0.8807707807580453 Phases=2

New Load.load_p1ulv28238 conn=wye bus1=p1ulv28238.1.2 kV=0.2080002494301389 Vminpu=0.8 Vmaxpu=1.2 model=1 kW=3.72004 kvar=0.7592704872813721 Phases=2

New Load.load_p1ulv28314 conn=wye bus1=p1ulv28314.1.2 kV=0.2080002494301389 Vminpu=0.8 Vmaxpu=1.2 model=1 kW=5.88006 kvar=1.1909169281329426 Phases=2

New Load.load_p1ulv28368 conn=wye bus1=p1ulv28368.1.2 kV=0.2080002494301389 Vminpu=0.8 Vmaxpu=1.2 model=1 kW=11.0601 kvar=2.2516296168607366 Phases=2

New Load.load_p1ulv28400 conn=wye bus1=p1ulv28400.1.2 kV=0.2080002494301389 Vminpu=0.8 Vmaxpu=1.2 model=1 kW=8.02008 kvar=1.628546702977565 Phases=2

New Load.load_p1ulv28436 conn=wye bus1=p1ulv28436.1.2 kV=0.2080002494301389 Vminpu=0.8 Vmaxpu=1.2 model=1 kW=1.38001 kvar=0.28022298226153225 Phases=2

New Load.load_p1ulv28589 conn=wye bus1=p1ulv28589.1.2 kV=0.2080002494301389 Vminpu=0.8 Vmaxpu=1.2 model=1 kW=3.88004 kvar=0.7899036155734878 Phases=2

New Load.load_p1ulv28618 conn=wye bus1=p1ulv28618.1.2 kV=0.2080002494301389 Vminpu=0.8 Vmaxpu=1.2 model=1 kW=14.0501 kvar=2.8529944877738234 Phases=2

New Load.load_p1ulv28649 conn=wye bus1=p1ulv28649.1.2 kV=0.2080002494301389 Vminpu=0.8 Vmaxpu=1.2 model=1 kW=3.99004 kvar=0.8102121782761024 Phases=2

New Load.load_p1ulv28728 conn=wye bus1=p1ulv28728.1.2 kV=0.2080002494301389 Vminpu=0.8 Vmaxpu=1.2 model=1 kW=3.38003 kvar=0.6898735027380501 Phases=2

New Load.load_p1ulv28816 conn=wye bus1=p1ulv28816.1.2 kV=0.2080002494301389 Vminpu=0.8 Vmaxpu=1.2 model=1 kW=2.59003 kvar=0.5299798976370255 Phases=2

New Load.load_p1ulv28852 conn=wye bus1=p1ulv28852.1.2 kV=0.2080002494301389 Vminpu=0.8 Vmaxpu=1.2 model=1 kW=3.65004 kvar=0.7392602157737106 Phases=2

New Load.load_p1ulv28863 conn=wye bus1=p1ulv28863.1.2.3 kV=0.48 Vminpu=0.8 Vmaxpu=1.2 model=1 kW=115.791 kvar=23.512365373471994 Phases=3

New Load.load_p1ulv28894 conn=wye bus1=p1ulv28894.1.2 kV=0.2080002494301389 Vminpu=0.8 Vmaxpu=1.2 model=1 kW=4.13004 kvar=0.840798942398307 Phases=2

New Load.load_p1ulv28961 conn=wye bus1=p1ulv28961.1.2 kV=0.2080002494301389 Vminpu=0.8 Vmaxpu=1.2 model=1 kW=3.61004 kvar=0.7292634355115489 Phases=2

New Load.load_p1ulv29026 conn=wye bus1=p1ulv29026.1.2 kV=0.2080002494301389 Vminpu=0.8 Vmaxpu=1.2 model=1 kW=3.88004 kvar=0.7899036155734878 Phases=2

New Load.load_p1ulv29050 conn=wye bus1=p1ulv29050.1.2 kV=0.2080002494301389 Vminpu=0.8 Vmaxpu=1.2 model=1 kW=10.3201 kvar=2.0901796563342514 Phases=2

New Load.load_p1ulv29303 conn=wye bus1=p1ulv29303.1.2 kV=0.2080002494301389 Vminpu=0.8 Vmaxpu=1.2 model=1 kW=3.59004 kvar=0.7308650364566972 Phases=2

New Load.load_p1ulv29317 conn=wye bus1=p1ulv29317.1.2.3 kV=0.48 Vminpu=0.8 Vmaxpu=1.2 model=1 kW=197.752 kvar=40.15525625769561 Phases=3

New Load.load_p1ulv29367 conn=wye bus1=p1ulv29367.1.2 kV=0.2080002494301389 Vminpu=0.8 Vmaxpu=1.2 model=1 kW=4.11004 kvar=0.8302683323425464 Phases=2

New Load.load_p1ulv29434 conn=wye bus1=p1ulv29434.1.2 kV=0.2080002494301389 Vminpu=0.8 Vmaxpu=1.2 model=1 kW=5.54006 kvar=1.1191463774750727 Phases=2

New Load.load_p1ulv29497 conn=wye bus1=p1ulv29497.1.2 kV=0.2080002494301389 Vminpu=0.8 Vmaxpu=1.2 model=1 kW=4.200040000000001 kvar=0.8506543699954566 Phases=2

New Load.load_p1umv46 conn=wye bus1=p1umv46.1.2.3 kV=12.47 Vminpu=0.8 Vmaxpu=1.2 model=1 kW=1443.04 kvar=293.0217696412936 Phases=3

New Load.load_p1ulv29636 conn=wye bus1=p1ulv29636.1.2 kV=0.2080002494301389 Vminpu=0.8 Vmaxpu=1.2 model=1 kW=1.51002 kvar=0.30976883991827064 Phases=2

New Load.load_p1ulv29787 conn=wye bus1=p1ulv29787.1.2 kV=0.2080002494301389 Vminpu=0.8 Vmaxpu=1.2 model=1 kW=1.96002 kvar=0.40004552114526587 Phases=2

New Load.load_p1ulv29814 conn=wye bus1=p1ulv29814.1.2.3 kV=0.48 Vminpu=0.8 Vmaxpu=1.2 model=1 kW=35.9204 kvar=7.293948313437689 Phases=3

New Load.load_p1ulv29849 conn=wye bus1=p1ulv29849.1.2 kV=0.2080002494301389 Vminpu=0.8 Vmaxpu=1.2 model=1 kW=3.21003 kvar=0.6501428670480555 Phases=2

New Load.load_p1ulv29952 conn=wye bus1=p1ulv29952.1.2 kV=0.2080002494301389 Vminpu=0.8 Vmaxpu=1.2 model=1 kW=3.46003 kvar=0.7007765735124853 Phases=2

New Load.load_p1ulv30019 conn=wye bus1=p1ulv30019.1.2 kV=0.2080002494301389 Vminpu=0.8 Vmaxpu=1.2 model=1 kW=4.11004 kvar=0.8302683323425464 Phases=2

New Load.load_p1ulv30050 conn=wye bus1=p1ulv30050.1.2 kV=0.2080002494301389 Vminpu=0.8 Vmaxpu=1.2 model=1 kW=14.3301 kvar=2.909850912751345 Phases=2

New Load.load_p1ulv30086 conn=wye bus1=p1ulv30086.1.2 kV=0.2080002494301389 Vminpu=0.8 Vmaxpu=1.2 model=1 kW=3.55004 kvar=0.7208663675971405 Phases=2

New Load.load_p1ulv30165 conn=wye bus1=p1ulv30165.1.2.3 kV=0.48 Vminpu=0.8 Vmaxpu=1.2 model=1 kW=25.960300000000004 kvar=5.271463747656942 Phases=3

New Load.load_p1ulv30236 conn=wye bus1=p1ulv30236.1.2 kV=0.2080002494301389 Vminpu=0.8 Vmaxpu=1.2 model=1 kW=9.290090000000001 kvar=1.8912886671279427 Phases=2

New Load.load_p1ulv30261 conn=wye bus1=p1ulv30261.1.2 kV=0.2080002494301389 Vminpu=0.8 Vmaxpu=1.2 model=1 kW=4.56005 kvar=0.9307188593475932 Phases=2

New Load.load_p1ulv30302 conn=wye bus1=p1ulv30302.1.2 kV=0.2080002494301389 Vminpu=0.8 Vmaxpu=1.2 model=1 kW=5.54006 kvar=1.1307416199202263 Phases=2

New Load.load_p1ulv30387 conn=wye bus1=p1ulv30387.1.2 kV=0.2080002494301389 Vminpu=0.8 Vmaxpu=1.2 model=1 kW=3.39003 kvar=0.6901467391837689 Phases=2

New Load.load_p1ulv30417 conn=wye bus1=p1ulv30417.1.2.3 kV=0.48 Vminpu=0.8 Vmaxpu=1.2 model=1 kW=31.420300000000005 kvar=6.380164034718604 Phases=3

New Load.load_p1ulv30455 conn=wye bus1=p1ulv30455.1.2 kV=0.2080002494301389 Vminpu=0.8 Vmaxpu=1.2 model=1 kW=4.82005 kvar=0.9787528971889325 Phases=2

New Load.load_p1ulv30479 conn=wye bus1=p1ulv30479.1.2 kV=0.2080002494301389 Vminpu=0.8 Vmaxpu=1.2 model=1 kW=11.2201 kvar=3.691848514127757 Phases=2

New Load.load_p1ulv30518 conn=wye bus1=p1ulv30518.1.2 kV=0.2080002494301389 Vminpu=0.8 Vmaxpu=1.2 model=1 kW=3.29003 kvar=0.6697886084538411 Phases=2

New Load.load_p1ulv30549 conn=wye bus1=p1ulv30549.1.2 kV=0.2080002494301389 Vminpu=0.8 Vmaxpu=1.2 model=1 kW=4.75005 kvar=0.95955662038416 Phases=2

New Load.load_p1ulv30564 conn=wye bus1=p1ulv30564.1.2 kV=0.2080002494301389 Vminpu=0.8 Vmaxpu=1.2 model=1 kW=3.85004 kvar=0.7797671809452545 Phases=2

New Load.load_p1ulv30628 conn=wye bus1=p1ulv30628.1.2 kV=0.2080002494301389 Vminpu=0.8 Vmaxpu=1.2 model=1 kW=2.8000300000000005 kvar=0.5700337678771953 Phases=2

New Load.load_p1ulv30653 conn=wye bus1=p1ulv30653.1.2 kV=0.2080002494301389 Vminpu=0.8 Vmaxpu=1.2 model=1 kW=5.39005 kvar=1.088842888327837 Phases=2

New Load.load_p1ulv30656 conn=wye bus1=p1ulv30656.1.2 kV=0.2080002494301389 Vminpu=0.8 Vmaxpu=1.2 model=1 kW=9.5701 kvar=1.9382785369409616 Phases=2

New Load.load_p1ulv30690 conn=wye bus1=p1ulv30690.1.2.3 kV=0.48 Vminpu=0.8 Vmaxpu=1.2 model=1 kW=29.550299999999996 kvar=6.000444339333017 Phases=3

New Load.load_p1ulv30712 conn=wye bus1=p1ulv30712.1.2 kV=0.2080002494301389 Vminpu=0.8 Vmaxpu=1.2 model=1 kW=5.00005 kvar=1.010059068799659 Phases=2

New Load.load_p1ulv31271 conn=wye bus1=p1ulv31271.1.2.3 kV=0.48 Vminpu=0.8 Vmaxpu=1.2 model=1 kW=42.53039999999999 kvar=8.636166060228456 Phases=3

New Load.load_p1ulv31305 conn=wye bus1=p1ulv31305.1.2 kV=0.2080002494301389 Vminpu=0.8 Vmaxpu=1.2 model=1 kW=3.9800400000000002 kvar=0.8102617463034154 Phases=2

New Load.load_p1ulv31331 conn=wye bus1=p1ulv31331.1.2 kV=0.2080002494301389 Vminpu=0.8 Vmaxpu=1.2 model=1 kW=4.36004 kvar=0.8898962633106831 Phases=2

New Load.load_p1ulv31447 conn=wye bus1=p1ulv31447.1.2 kV=0.2080002494301389 Vminpu=0.8 Vmaxpu=1.2 model=1 kW=1.38001 kvar=0.28022298226153225 Phases=2

New Load.load_p1ulv31517 conn=wye bus1=p1ulv31517.1.2 kV=0.2080002494301389 Vminpu=0.8 Vmaxpu=1.2 model=1 kW=4.13004 kvar=0.840798942398307 Phases=2

New Load.load_p1ulv31606 conn=wye bus1=p1ulv31606.1.2 kV=0.2080002494301389 Vminpu=0.8 Vmaxpu=1.2 model=1 kW=2.85003 kvar=0.5802128332421591 Phases=2

New Load.load_p1ulv31634 conn=wye bus1=p1ulv31634.1.2 kV=0.2080002494301389 Vminpu=0.8 Vmaxpu=1.2 model=1 kW=3.89004 kvar=0.789906312212702 Phases=2

New Load.load_p1ulv31694 conn=wye bus1=p1ulv31694.1.2 kV=0.2080002494301389 Vminpu=0.8 Vmaxpu=1.2 model=1 kW=4.15004 kvar=0.8405276287025704 Phases=2

New Load.load_p1ulv31722 conn=wye bus1=p1ulv31722.1.2 kV=0.2080002494301389 Vminpu=0.8 Vmaxpu=1.2 model=1 kW=3.17003 kvar=0.6403771062023346 Phases=2

New Load.load_p1ulv31790 conn=wye bus1=p1ulv31790.1.2.3 kV=0.48 Vminpu=0.8 Vmaxpu=1.2 model=1 kW=75.14079999999998 kvar=15.25799020696759 Phases=3

New Load.load_p1ulv31822 conn=wye bus1=p1ulv31822.1.2.3 kV=0.48 Vminpu=0.8 Vmaxpu=1.2 model=1 kW=53.090500000000006 kvar=10.780485822389606 Phases=3

New Load.load_p1ulv31856 conn=wye bus1=p1ulv31856.1.2 kV=0.2080002494301389 Vminpu=0.8 Vmaxpu=1.2 model=1 kW=4.71005 kvar=0.9588781364449609 Phases=2

New Load.load_p1ulv31883 conn=wye bus1=p1ulv31883.1.2 kV=0.2080002494301389 Vminpu=0.8 Vmaxpu=1.2 model=1 kW=4.98005 kvar=1.011242282890373 Phases=2

New Load.load_p1ulv31934 conn=wye bus1=p1ulv31934.1.2 kV=0.2080002494301389 Vminpu=0.8 Vmaxpu=1.2 model=1 kW=16.9702 kvar=3.4459460826911785 Phases=2

New Load.load_p1ulv31943 conn=wye bus1=p1ulv31943.1.2 kV=0.2080002494301389 Vminpu=0.8 Vmaxpu=1.2 model=1 kW=2.93003 kvar=0.5995517424405946 Phases=2

New Load.load_p1ulv31969 conn=wye bus1=p1ulv31969.1.2 kV=0.2080002494301389 Vminpu=0.8 Vmaxpu=1.2 model=1 kW=4.05004 kvar=0.8202741461167985 Phases=2

New Load.load_p1ulv32007 conn=wye bus1=p1ulv32007.1.2 kV=0.2080002494301389 Vminpu=0.8 Vmaxpu=1.2 model=1 kW=1.9700200000000003 kvar=0.4000296226222012 Phases=2

New Load.load_p1ulv32030 conn=wye bus1=p1ulv32030.1.2.3 kV=0.48 Vminpu=0.8 Vmaxpu=1.2 model=1 kW=96.931 kvar=19.682679033914667 Phases=3

New Load.load_p1ulv32032 conn=wye bus1=p1ulv32032.1.2.3 kV=0.48 Vminpu=0.8 Vmaxpu=1.2 model=1 kW=44.4804 kvar=9.032130448464764 Phases=3

New Load.load_p1ulv32130 conn=wye bus1=p1ulv32130.1.2 kV=0.2080002494301389 Vminpu=0.8 Vmaxpu=1.2 model=1 kW=4.14004 kvar=1.3592956687066866 Phases=2

New Load.load_p1ulv32164 conn=wye bus1=p1ulv32164.1.2 kV=0.2080002494301389 Vminpu=0.8 Vmaxpu=1.2 model=1 kW=3.68004 kvar=0.7491873541136322 Phases=2

New Load.load_p1ulv32227 conn=wye bus1=p1ulv29026.1.2 kV=0.2080002494301389 Vminpu=0.8 Vmaxpu=1.2 model=1 kW=3.37003 kvar=0.6807790649347335 Phases=2

New Load.load_p1ulv32255 conn=wye bus1=p1ulv32255.1.2 kV=0.2080002494301389 Vminpu=0.8 Vmaxpu=1.2 model=1 kW=4.14004 kvar=0.8406709773712032 Phases=2

New Load.load_p1ulv32294 conn=wye bus1=p1ulv32294.1.2 kV=0.2080002494301389 Vminpu=0.8 Vmaxpu=1.2 model=1 kW=4.35004 kvar=0.8810345938741143 Phases=2

New Load.load_p1ulv32322 conn=wye bus1=p1ulv32322.1.2 kV=0.2080002494301389 Vminpu=0.8 Vmaxpu=1.2 model=1 kW=3.0300300000000004 kvar=0.6105012150057635 Phases=2

New Load.load_p1ulv32871 conn=wye bus1=p1ulv32871.1.2 kV=0.2080002494301389 Vminpu=0.8 Vmaxpu=1.2 model=1 kW=6.81007 kvar=1.37927634152888 Phases=2

New Load.load_p1ulv32899 conn=wye bus1=p1ulv32899.1.2.3 kV=0.48 Vminpu=0.8 Vmaxpu=1.2 model=1 kW=57.09060000000001 kvar=11.592740770791687 Phases=3

New Load.load_p1ulv32948 conn=wye bus1=p1ulv32948.1.2.3 kV=0.48 Vminpu=0.8 Vmaxpu=1.2 model=1 kW=28.300299999999996 kvar=5.746621013540511 Phases=3

New Load.load_p1ulv33021 conn=wye bus1=p1ulv33021.1.2 kV=0.2080002494301389 Vminpu=0.8 Vmaxpu=1.2 model=1 kW=2.93003 kvar=0.5903528595437461 Phases=2

New Load.load_p1ulv33088 conn=wye bus1=p1ulv33088.1.2 kV=0.2080002494301389 Vminpu=0.8 Vmaxpu=1.2 model=1 kW=5.090050000000001 kvar=1.0309123903570856 Phases=2

New Load.load_p1ulv33115 conn=wye bus1=p1ulv33115.1.2 kV=0.2080002494301389 Vminpu=0.8 Vmaxpu=1.2 model=1 kW=4.06004 kvar=0.8201678426594468 Phases=2

New Load.load_p1ulv33155 conn=wye bus1=p1ulv33155.1.2 kV=0.2080002494301389 Vminpu=0.8 Vmaxpu=1.2 model=1 kW=3.44003 kvar=0.7003258045487328 Phases=2

New Load.load_p1umv56 conn=wye bus1=p1umv56.1.2.3 kV=12.47 Vminpu=0.8 Vmaxpu=1.2 model=1 kW=818.208 kvar=166.14422060002735 Phases=3

New Load.load_p1ulv33234 conn=wye bus1=p1ulv33234.1.2 kV=0.2080002494301389 Vminpu=0.8 Vmaxpu=1.2 model=1 kW=1.40001 kvar=0.2798584994418662 Phases=2

New Load.load_p1ulv33248 conn=wye bus1=p1ulv33248.1.2 kV=0.2080002494301389 Vminpu=0.8 Vmaxpu=1.2 model=1 kW=1.84002 kvar=0.36976324162285545 Phases=2

New Load.load_p1ulv33281 conn=wye bus1=p1ulv33281.1.2 kV=0.2080002494301389 Vminpu=0.8 Vmaxpu=1.2 model=1 kW=11.5501 kvar=2.3392974921392464 Phases=2

New Load.load_p1ulv33315 conn=wye bus1=p1ulv33315.1.2 kV=0.2080002494301389 Vminpu=0.8 Vmaxpu=1.2 model=1 kW=3.9600400000000002 kvar=0.7999668632932473 Phases=2

New Load.load_p1ulv33343 conn=wye bus1=p1ulv33343.1.2 kV=0.2080002494301389 Vminpu=0.8 Vmaxpu=1.2 model=1 kW=3.77004 kvar=0.7694756260336619 Phases=2

New Load.load_p1ulv33378 conn=wye bus1=p1ulv33378.1.2.3 kV=0.48 Vminpu=0.8 Vmaxpu=1.2 model=1 kW=36.2604 kvar=7.362988258053249 Phases=3

New Load.load_p1ulv33412 conn=wye bus1=p1ulv33412.1.2 kV=0.2080002494301389 Vminpu=0.8 Vmaxpu=1.2 model=1 kW=2.38002 kvar=0.47953488966710467 Phases=2

New Load.load_p1ulv33447 conn=wye bus1=p1ulv33447.1.2 kV=0.2080002494301389 Vminpu=0.8 Vmaxpu=1.2 model=1 kW=1.38001 kvar=0.28022298226153225 Phases=2

New Load.load_p1ulv33473 conn=wye bus1=p1ulv33473.1.2 kV=0.2080002494301389 Vminpu=0.8 Vmaxpu=1.2 model=1 kW=3.89004 kvar=0.789906312212702 Phases=2

New Load.load_p1ulv33507 conn=wye bus1=p1ulv33507.1.2 kV=0.2080002494301389 Vminpu=0.8 Vmaxpu=1.2 model=1 kW=6.34006 kvar=1.2907177031558559 Phases=2

New Load.load_p1ulv33607 conn=wye bus1=p1ulv33607.1.2 kV=0.2080002494301389 Vminpu=0.8 Vmaxpu=1.2 model=1 kW=3.90004 kvar=0.7898939222381405 Phases=2

New Load.load_p1ulv33641 conn=wye bus1=p1ulv33641.1.2 kV=0.2080002494301389 Vminpu=0.8 Vmaxpu=1.2 model=1 kW=15.7502 kvar=3.198214516717694 Phases=2

New Load.load_p1ulv33677 conn=wye bus1=p1ulv33677.1.2 kV=0.2080002494301389 Vminpu=0.8 Vmaxpu=1.2 model=1 kW=3.63004 kvar=0.7409012375272501 Phases=2

New Load.load_p1ulv33704 conn=wye bus1=p1ulv33704.1.2 kV=0.2080002494301389 Vminpu=0.8 Vmaxpu=1.2 model=1 kW=3.7300400000000002 kvar=0.7593664194785962 Phases=2

New Load.load_p1ulv33737 conn=wye bus1=p1ulv33737.1.2 kV=0.2080002494301389 Vminpu=0.8 Vmaxpu=1.2 model=1 kW=4.19004 kvar=0.8508239104029033 Phases=2

New Load.load_p1ulv33829 conn=wye bus1=p1ulv33829.1.2 kV=0.2080002494301389 Vminpu=0.8 Vmaxpu=1.2 model=1 kW=4.34004 kvar=0.8790092456155372 Phases=2

New Load.load_p1ulv33858 conn=wye bus1=p1ulv33858.1.2 kV=0.2080002494301389 Vminpu=0.8 Vmaxpu=1.2 model=1 kW=6.42006 kvar=1.300285734096111 Phases=2

New Load.load_p1ulv33893 conn=wye bus1=p1ulv33893.1.2 kV=0.2080002494301389 Vminpu=0.8 Vmaxpu=1.2 model=1 kW=3.49003 kvar=0.7105048699136965 Phases=2

New Load.load_p1ulv33911 conn=wye bus1=p1ulv33911.1.2 kV=0.2080002494301389 Vminpu=0.8 Vmaxpu=1.2 model=1 kW=5.06005 kvar=1.030131593999708 Phases=2

New Load.load_p1ulv33954 conn=wye bus1=p1ulv33954.1.2 kV=0.2080002494301389 Vminpu=0.8 Vmaxpu=1.2 model=1 kW=1.96002 kvar=0.40004552114526587 Phases=2

New Load.load_p1ulv34461 conn=wye bus1=p1ulv34461.1.2 kV=0.2080002494301389 Vminpu=0.8 Vmaxpu=1.2 model=1 kW=1.81002 kvar=0.37037185450398985 Phases=2

New Load.load_p1ulv34522 conn=wye bus1=p1ulv34522.1.2 kV=0.2080002494301389 Vminpu=0.8 Vmaxpu=1.2 model=1 kW=3.76004 kvar=0.7595649045608481 Phases=2

New Load.load_p1ulv34547 conn=wye bus1=p1ulv34547.1.2 kV=0.2080002494301389 Vminpu=0.8 Vmaxpu=1.2 model=1 kW=5.43005 kvar=1.0997742311487098 Phases=2

New Load.load_p1ulv34585 conn=wye bus1=p1ulv34585.1.2 kV=0.2080002494301389 Vminpu=0.8 Vmaxpu=1.2 model=1 kW=3.65004 kvar=0.7392602157737106 Phases=2

New Load.load_p1ulv34651 conn=wye bus1=p1ulv34651.1.2 kV=0.2080002494301389 Vminpu=0.8 Vmaxpu=1.2 model=1 kW=4.39004 kvar=0.8891359869084231 Phases=2

New Load.load_p1ulv34683 conn=wye bus1=p1ulv34683.1.2 kV=0.2080002494301389 Vminpu=0.8 Vmaxpu=1.2 model=1 kW=11.010100000000001 kvar=2.241450551495773 Phases=2

New Load.load_p1ulv34721 conn=wye bus1=p1ulv34721.1.2 kV=0.2080002494301389 Vminpu=0.8 Vmaxpu=1.2 model=1 kW=3.47003 kvar=0.7100482018344989 Phases=2

New Load.load_p1ulv34878 conn=wye bus1=p1ulv34878.1.2 kV=0.2080002494301389 Vminpu=0.8 Vmaxpu=1.2 model=1 kW=3.60004 kvar=0.7291334744808246 Phases=2

New Load.load_p1ulv34906 conn=wye bus1=p1ulv34906.1.2 kV=0.2080002494301389 Vminpu=0.8 Vmaxpu=1.2 model=1 kW=3.33003 kvar=0.6796683639857601 Phases=2

New Load.load_p1ulv34997 conn=wye bus1=p1ulv28129.1.2 kV=0.2080002494301389 Vminpu=0.8 Vmaxpu=1.2 model=1 kW=4.05004 kvar=0.8202741461167985 Phases=2

New Load.load_p1ulv35007 conn=wye bus1=p1ulv35007.1.2 kV=0.2080002494301389 Vminpu=0.8 Vmaxpu=1.2 model=1 kW=3.18003 kvar=0.6407237481987894 Phases=2

New Load.load_p1ulv35015 conn=wye bus1=p1ulv35015.1.2 kV=0.2080002494301389 Vminpu=0.8 Vmaxpu=1.2 model=1 kW=4.57005 kvar=0.9303767534230621 Phases=2

New Load.load_p1ulv35048 conn=wye bus1=p1ulv35048.1.2.3 kV=0.48 Vminpu=0.8 Vmaxpu=1.2 model=1 kW=49.9305 kvar=10.13882045478615 Phases=3

New Load.load_p1ulv35083 conn=wye bus1=p1ulv28649.1.2 kV=0.2080002494301389 Vminpu=0.8 Vmaxpu=1.2 model=1 kW=4.13004 kvar=0.840798942398307 Phases=2

New Load.load_p1ulv35107 conn=wye bus1=p1ulv35107.1.2 kV=0.2080002494301389 Vminpu=0.8 Vmaxpu=1.2 model=1 kW=3.20003 kvar=0.6497938057886328 Phases=2

New Load.load_p1ulv35140 conn=wye bus1=p1ulv35140.1.2 kV=0.2080002494301389 Vminpu=0.8 Vmaxpu=1.2 model=1 kW=4.13004 kvar=0.840798942398307 Phases=2

New Load.load_p1ulv35152 conn=wye bus1=p1ulv35152.1.2 kV=0.2080002494301389 Vminpu=0.8 Vmaxpu=1.2 model=1 kW=18.5502 kvar=3.7667787664929064 Phases=2

New Load.load_p1ulv35212 conn=wye bus1=p1ulv35212.1.2 kV=0.2080002494301389 Vminpu=0.8 Vmaxpu=1.2 model=1 kW=4.35004 kvar=0.8810345938741143 Phases=2

New Load.load_p1ulv35231 conn=wye bus1=p1ulv35231.1.2 kV=0.2080002494301389 Vminpu=0.8 Vmaxpu=1.2 model=1 kW=10.1101 kvar=2.04764734290413 Phases=2

New Load.load_p1ulv35256 conn=wye bus1=p1ulv35256.1.2.3 kV=0.48 Vminpu=0.8 Vmaxpu=1.2 model=1 kW=266.373 kvar=54.08934460906163 Phases=3

New Load.load_p1ulv35297 conn=wye bus1=p1ulv35297.1.2 kV=0.2080002494301389 Vminpu=0.8 Vmaxpu=1.2 model=1 kW=5.170050000000001 kvar=1.0498234284108339 Phases=2

New Load.load_p1ulv35358 conn=wye bus1=p1ulv35358.1.2 kV=0.2080002494301389 Vminpu=0.8 Vmaxpu=1.2 model=1 kW=4.30004 kvar=0.8709078525812284 Phases=2

New Load.load_p1ulv35445 conn=wye bus1=p1ulv35445.1.2 kV=0.2080002494301389 Vminpu=0.8 Vmaxpu=1.2 model=1 kW=4.38004 kvar=0.8894050559233643 Phases=2

New Load.load_p1ulv35468 conn=wye bus1=p1ulv35468.1.2 kV=0.2080002494301389 Vminpu=0.8 Vmaxpu=1.2 model=1 kW=4.00004 kvar=0.8101474048239126 Phases=2

New Load.load_p1ulv35471 conn=wye bus1=p1ulv35471.1.2 kV=0.2080002494301389 Vminpu=0.8 Vmaxpu=1.2 model=1 kW=2.83003 kvar=0.580558608517704 Phases=2

New Load.load_p1ulv35511 conn=wye bus1=p1ulv35511.1.2 kV=0.2080002494301389 Vminpu=0.8 Vmaxpu=1.2 model=1 kW=10.3201 kvar=2.1009794494592713 Phases=2

New Load.load_p1ulv35582 conn=wye bus1=p1ulv35582.1.2 kV=0.2080002494301389 Vminpu=0.8 Vmaxpu=1.2 model=1 kW=4.450040000000001 kvar=0.898951662187625 Phases=2

New Load.load_p1ulv35612 conn=wye bus1=p1ulv35612.1.2 kV=0.2080002494301389 Vminpu=0.8 Vmaxpu=1.2 model=1 kW=10.1101 kvar=2.04764734290413 Phases=2

New Load.load_p1ulv36047 conn=wye bus1=p1ulv36047.1.2 kV=0.2080002494301389 Vminpu=0.8 Vmaxpu=1.2 model=1 kW=5.10005 kvar=1.0409343578723245 Phases=2

New Load.load_p1ulv36087 conn=wye bus1=p1ulv36087.1.2.3 kV=0.48 Vminpu=0.8 Vmaxpu=1.2 model=1 kW=28.200300000000002 kvar=5.726315147477111 Phases=3

New Load.load_p1ulv36109 conn=wye bus1=p1ulv36109.1.2 kV=0.2080002494301389 Vminpu=0.8 Vmaxpu=1.2 model=1 kW=5.25005 kvar=1.0688120423865706 Phases=2

New Load.load_p1ulv36145 conn=wye bus1=p1ulv36145.1.2 kV=0.2080002494301389 Vminpu=0.8 Vmaxpu=1.2 model=1 kW=2.83003 kvar=0.580558608517704 Phases=2

New Load.load_p1umv63 conn=wye bus1=p1umv63.1.2.3 kV=12.47 Vminpu=0.8 Vmaxpu=1.2 model=1 kW=917.269 kvar=186.2594145810925 Phases=3

New Load.load_p1ulv36186 conn=wye bus1=p1ulv36186.1.2.3 kV=0.48 Vminpu=0.8 Vmaxpu=1.2 model=1 kW=53.0605 kvar=10.774394062570584 Phases=3

New Load.load_p1ulv36207 conn=wye bus1=p1ulv36207.1.2 kV=0.2080002494301389 Vminpu=0.8 Vmaxpu=1.2 model=1 kW=3.47003 kvar=0.7100482018344989 Phases=2

New Load.load_p1ulv36275 conn=wye bus1=p1ulv36275.1.2 kV=0.2080002494301389 Vminpu=0.8 Vmaxpu=1.2 model=1 kW=4.41004 kvar=0.900101402062973 Phases=2

New Load.load_p1ulv36301 conn=wye bus1=p1ulv36301.1.2 kV=0.2080002494301389 Vminpu=0.8 Vmaxpu=1.2 model=1 kW=3.20003 kvar=0.6497938057886328 Phases=2

New Load.load_p1ulv36337 conn=wye bus1=p1ulv36337.1.2 kV=0.2080002494301389 Vminpu=0.8 Vmaxpu=1.2 model=1 kW=3.43003 kvar=0.70007864149034 Phases=2

New Load.load_p1ulv36457 conn=wye bus1=p1ulv30050.1.2 kV=0.2080002494301389 Vminpu=0.8 Vmaxpu=1.2 model=1 kW=11.8501 kvar=2.4124588496271655 Phases=2

New Load.load_p1ulv36494 conn=wye bus1=p1ulv36494.1.2 kV=0.2080002494301389 Vminpu=0.8 Vmaxpu=1.2 model=1 kW=6.140060000000001 kvar=1.2500014416960006 Phases=2

New Load.load_p1ulv36521 conn=wye bus1=p1ulv36521.1.2 kV=0.2080002494301389 Vminpu=0.8 Vmaxpu=1.2 model=1 kW=13.7301 kvar=2.7880157163709427 Phases=2

New Load.load_p1ulv36557 conn=wye bus1=p1ulv36557.1.2 kV=0.2080002494301389 Vminpu=0.8 Vmaxpu=1.2 model=1 kW=4.36004 kvar=0.8898962633106831 Phases=2

New Load.load_p1ulv36624 conn=wye bus1=p1ulv36624.1.2.3 kV=0.48 Vminpu=0.8 Vmaxpu=1.2 model=1 kW=32.9203 kvar=6.684752025669612 Phases=3

New Load.load_p1ulv36638 conn=wye bus1=p1ulv36638.1.2 kV=0.2080002494301389 Vminpu=0.8 Vmaxpu=1.2 model=1 kW=10.2801 kvar=2.0874633371836273 Phases=2

New Load.load_p1ulv36700 conn=wye bus1=p1ulv36700.1.2 kV=0.2080002494301389 Vminpu=0.8 Vmaxpu=1.2 model=1 kW=4.03004 kvar=0.8204408116683792 Phases=2

New Load.load_p1ulv36714 conn=wye bus1=p1ulv36714.1.2.3 kV=0.48 Vminpu=0.8 Vmaxpu=1.2 model=1 kW=96.851 kvar=19.666434341063947 Phases=3

New Load.load_p1ulv36763 conn=wye bus1=p1ulv36763.1.2 kV=0.2080002494301389 Vminpu=0.8 Vmaxpu=1.2 model=1 kW=4.11004 kvar=0.8302683323425464 Phases=2

New Load.load_p1ulv36845 conn=wye bus1=p1ulv36845.1.2 kV=0.2080002494301389 Vminpu=0.8 Vmaxpu=1.2 model=1 kW=3.14003 kvar=0.6392514123589496 Phases=2

New Load.load_p1ulv36872 conn=wye bus1=p1ulv36872.1.2 kV=0.2080002494301389 Vminpu=0.8 Vmaxpu=1.2 model=1 kW=3.9600400000000002 kvar=0.7999668632932473 Phases=2

New Load.load_p1ulv36911 conn=wye bus1=p1ulv36911.1.2 kV=0.2080002494301389 Vminpu=0.8 Vmaxpu=1.2 model=1 kW=4.200040000000001 kvar=0.8506543699954566 Phases=2

New Load.load_p1ulv36975 conn=wye bus1=p1ulv36975.1.2 kV=0.2080002494301389 Vminpu=0.8 Vmaxpu=1.2 model=1 kW=3.61004 kvar=0.7292634355115489 Phases=2

New Load.load_p1ulv37054 conn=wye bus1=p1ulv37054.1.2 kV=0.2080002494301389 Vminpu=0.8 Vmaxpu=1.2 model=1 kW=4.27004 kvar=0.869300325420206 Phases=2

New Load.load_p1ulv37069 conn=wye bus1=p1ulv37069.1.2 kV=0.2080002494301389 Vminpu=0.8 Vmaxpu=1.2 model=1 kW=10.7401 kvar=2.1808703210752696 Phases=2

New Load.load_p1ulv37078 conn=wye bus1=p1ulv37078.1.2 kV=0.2080002494301389 Vminpu=0.8 Vmaxpu=1.2 model=1 kW=1.38001 kvar=0.28022298226153225 Phases=2

New Load.load_p1ulv37121 conn=wye bus1=p1ulv37121.1.2.3 kV=0.48 Vminpu=0.8 Vmaxpu=1.2 model=1 kW=48.4505 kvar=9.838293637047826 Phases=3

New Load.load_p1ulv37196 conn=wye bus1=p1ulv37196.1.2 kV=0.2080002494301389 Vminpu=0.8 Vmaxpu=1.2 model=1 kW=3.25003 kvar=0.659946738820333 Phases=2

New Load.load_p1ulv37229 conn=wye bus1=p1ulv37229.1.2.3 kV=0.48 Vminpu=0.8 Vmaxpu=1.2 model=1 kW=380.994 kvar=77.36413134959183 Phases=3

New Load.load_p1ulv37475 conn=wye bus1=p1ulv37475.1.2 kV=0.2080002494301389 Vminpu=0.8 Vmaxpu=1.2 model=1 kW=16.4102 kvar=3.3322332327361375 Phases=2

New Load.load_p1ulv37478 conn=wye bus1=p1ulv37478.1.2 kV=0.2080002494301389 Vminpu=0.8 Vmaxpu=1.2 model=1 kW=15.1202 kvar=3.070287560518272 Phases=2

New Load.load_p1ulv37510 conn=wye bus1=p1ulv37510.1.2 kV=0.2080002494301389 Vminpu=0.8 Vmaxpu=1.2 model=1 kW=4.90005 kvar=0.9898580894334593 Phases=2

New Load.load_p1ulv37538 conn=wye bus1=p1ulv37538.1.2.3 kV=0.48 Vminpu=0.8 Vmaxpu=1.2 model=1 kW=111.14100000000003 kvar=22.568142601523878 Phases=3

New Load.load_p1ulv37655 conn=wye bus1=p1ulv37655.1.2 kV=0.2080002494301389 Vminpu=0.8 Vmaxpu=1.2 model=1 kW=5.91006 kvar=1.200088867866603 Phases=2

New Load.load_p1ulv37722 conn=wye bus1=p1ulv37722.1.2 kV=0.2080002494301389 Vminpu=0.8 Vmaxpu=1.2 model=1 kW=3.70004 kvar=0.7493869570665965 Phases=2

New Load.load_p1ulv37736 conn=wye bus1=p1ulv37736.1.2.3 kV=0.48 Vminpu=0.8 Vmaxpu=1.2 model=1 kW=156.90200000000002 kvar=31.860309970796543 Phases=3

New Load.load_p1ulv37744 conn=wye bus1=p1ulv37744.1.2 kV=0.2080002494301389 Vminpu=0.8 Vmaxpu=1.2 model=1 kW=2.13002 kvar=0.4302849006959229 Phases=2

New Load.load_p1ulv37783 conn=wye bus1=p1ulv37783.1.2 kV=0.2080002494301389 Vminpu=0.8 Vmaxpu=1.2 model=1 kW=4.15004 kvar=0.8405276287025704 Phases=2

New Load.load_p1ulv37850 conn=wye bus1=p1ulv37850.1.2 kV=0.2080002494301389 Vminpu=0.8 Vmaxpu=1.2 model=1 kW=4.01004 kvar=0.810067352976347 Phases=2

New Load.load_p1ulv37929 conn=wye bus1=p1ulv37929.1.2 kV=0.2080002494301389 Vminpu=0.8 Vmaxpu=1.2 model=1 kW=1.88002 kvar=0.37978245228042407 Phases=2

New Load.load_p1ulv37985 conn=wye bus1=p1ulv37985.1.2.3 kV=0.48 Vminpu=0.8 Vmaxpu=1.2 model=1 kW=36.1904 kvar=7.348774151808868 Phases=3

New Load.load_p1ulv38057 conn=wye bus1=p1ulv38057.1.2 kV=0.2080002494301389 Vminpu=0.8 Vmaxpu=1.2 model=1 kW=9.7701 kvar=1.9787855021125054 Phases=2

New Load.load_p1ulv38074 conn=wye bus1=p1ulv38074.1.2 kV=0.2080002494301389 Vminpu=0.8 Vmaxpu=1.2 model=1 kW=2.02002 kvar=0.4101825556539014 Phases=2

New Load.load_p1ulv38088 conn=wye bus1=p1ulv38088.1.2.3 kV=0.48 Vminpu=0.8 Vmaxpu=1.2 model=1 kW=23.7302 kvar=4.8186226285770495 Phases=3

New Load.load_p1ulv38102 conn=wye bus1=p1ulv38102.1.2.3 kV=0.48 Vminpu=0.8 Vmaxpu=1.2 model=1 kW=112.64100000000003 kvar=22.87273059247488 Phases=3

New Load.load_p1ulv38206 conn=wye bus1=p1ulv38206.1.2 kV=0.2080002494301389 Vminpu=0.8 Vmaxpu=1.2 model=1 kW=4.16004 kvar=0.8403688220256462 Phases=2

New Load.load_p1umv67 conn=wye bus1=p1umv67.1.2.3 kV=12.47 Vminpu=0.8 Vmaxpu=1.2 model=1 kW=1018.13 kvar=206.7401141512988 Phases=3

New Load.load_p1ulv38290 conn=wye bus1=p1ulv38290.1.2 kV=0.2080002494301389 Vminpu=0.8 Vmaxpu=1.2 model=1 kW=3.6900400000000007 kvar=0.7492945800859013 Phases=2

New Load.load_p1ulv38311 conn=wye bus1=p1ulv38311.1.2 kV=0.2080002494301389 Vminpu=0.8 Vmaxpu=1.2 model=1 kW=8.60009 kvar=1.7508175650914415 Phases=2

New Load.load_p1ulv38359 conn=wye bus1=p1ulv38359.1.2 kV=0.2080002494301389 Vminpu=0.8 Vmaxpu=1.2 model=1 kW=4.880050000000001 kvar=0.9909364168269728 Phases=2

New Load.load_p1ulv38429 conn=wye bus1=p1ulv38429.1.2 kV=0.2080002494301389 Vminpu=0.8 Vmaxpu=1.2 model=1 kW=4.42004 kvar=0.8998375215150975 Phases=2

New Load.load_p1ulv38462 conn=wye bus1=p1ulv38462.1.2 kV=0.2080002494301389 Vminpu=0.8 Vmaxpu=1.2 model=1 kW=3.82004 kvar=0.7696752379912465 Phases=2

New Load.load_p1ulv38516 conn=wye bus1=p1ulv38516.1.2 kV=0.2080002494301389 Vminpu=0.8 Vmaxpu=1.2 model=1 kW=4.05004 kvar=0.8202741461167985 Phases=2

New Load.load_p1ulv38541 conn=wye bus1=p1ulv38541.1.2 kV=0.2080002494301389 Vminpu=0.8 Vmaxpu=1.2 model=1 kW=4.04004 kvar=0.8203651113078028 Phases=2

New Load.load_p1ulv38585 conn=wye bus1=p1ulv38585.1.2 kV=0.2080002494301389 Vminpu=0.8 Vmaxpu=1.2 model=1 kW=1.38001 kvar=0.28022298226153225 Phases=2

New Load.load_p1ulv38617 conn=wye bus1=p1ulv38617.1.2 kV=0.2080002494301389 Vminpu=0.8 Vmaxpu=1.2 model=1 kW=4.69005 kvar=0.9498984600139976 Phases=2

New Load.load_p1ulv38672 conn=wye bus1=p1ulv38672.1.2 kV=0.2080002494301389 Vminpu=0.8 Vmaxpu=1.2 model=1 kW=3.81004 kvar=0.769665394243948 Phases=2

New Load.load_p1ulv38683 conn=wye bus1=p1ulv38683.1.2 kV=0.2080002494301389 Vminpu=0.8 Vmaxpu=1.2 model=1 kW=17.8402 kvar=5.857457075018849 Phases=2

New Load.load_p1ulv38705 conn=wye bus1=p1ulv38705.1.2 kV=0.2080002494301389 Vminpu=0.8 Vmaxpu=1.2 model=1 kW=4.56005 kvar=0.9307188593475932 Phases=2

New Load.load_p1ulv38729 conn=wye bus1=p1ulv38729.1.2.3 kV=0.48 Vminpu=0.8 Vmaxpu=1.2 model=1 kW=27.340299999999996 kvar=5.551684699331867 Phases=3

New Load.load_p1ulv38751 conn=wye bus1=p1ulv38751.1.2 kV=0.2080002494301389 Vminpu=0.8 Vmaxpu=1.2 model=1 kW=2.98003 kvar=0.6004270372747549 Phases=2

New Load.load_p1ulv38811 conn=wye bus1=p1ulv38811.1.2 kV=0.2080002494301389 Vminpu=0.8 Vmaxpu=1.2 model=1 kW=4.54005 kvar=0.9195182361353397 Phases=2

New Load.load_p1ulv38838 conn=wye bus1=p1ulv38838.1.2.3 kV=0.48 Vminpu=0.8 Vmaxpu=1.2 model=1 kW=108.061 kvar=21.942721926771142 Phases=3

New Load.load_p1ulv38873 conn=wye bus1=p1ulv38873.1.2 kV=0.2080002494301389 Vminpu=0.8 Vmaxpu=1.2 model=1 kW=3.57004 kvar=0.7193043493362031 Phases=2

New Load.load_p1ulv38961 conn=wye bus1=p1ulv38961.1.2 kV=0.2080002494301389 Vminpu=0.8 Vmaxpu=1.2 model=1 kW=3.04003 kvar=0.6204785592224786 Phases=2

New Load.load_p1ulv38988 conn=wye bus1=p1ulv38988.1.2.3 kV=0.48 Vminpu=0.8 Vmaxpu=1.2 model=1 kW=34.7203 kvar=7.05025761481082 Phases=3

New Load.load_p1ulv39018 conn=wye bus1=p1ulv39018.1.2 kV=0.2080002494301389 Vminpu=0.8 Vmaxpu=1.2 model=1 kW=18.6502 kvar=3.787084632556307 Phases=2

New Load.load_p1ulv39045 conn=wye bus1=p1ulv39045.1.2 kV=0.2080002494301389 Vminpu=0.8 Vmaxpu=1.2 model=1 kW=3.43003 kvar=0.70007864149034 Phases=2

New Load.load_p1ulv39103 conn=wye bus1=p1ulv39103.1.2.3 kV=0.48 Vminpu=0.8 Vmaxpu=1.2 model=1 kW=44.8404 kvar=9.105231566293007 Phases=3

New Load.load_p1ulv39105 conn=wye bus1=p1ulv39105.1.2 kV=0.2080002494301389 Vminpu=0.8 Vmaxpu=1.2 model=1 kW=4.28004 kvar=0.8690991898599637 Phases=2

New Load.load_p1ulv39179 conn=wye bus1=p1ulv39179.1.2 kV=0.2080002494301389 Vminpu=0.8 Vmaxpu=1.2 model=1 kW=3.9600400000000002 kvar=0.7999668632932473 Phases=2

New Load.load_p1ulv39204 conn=wye bus1=p1ulv39204.1.2 kV=0.2080002494301389 Vminpu=0.8 Vmaxpu=1.2 model=1 kW=2.5300300000000004 kvar=0.5097594376956769 Phases=2

New Load.load_p1ulv39243 conn=wye bus1=p1ulv39243.1.2 kV=0.2080002494301389 Vminpu=0.8 Vmaxpu=1.2 model=1 kW=3.29003 kvar=0.6697886084538411 Phases=2

New Load.load_p1ulv39252 conn=wye bus1=p1ulv39252.1.2 kV=0.2080002494301389 Vminpu=0.8 Vmaxpu=1.2 model=1 kW=4.61005 kvar=0.9409239980998833 Phases=2

New Load.load_p1ulv39334 conn=wye bus1=p1ulv39334.1.2 kV=0.2080002494301389 Vminpu=0.8 Vmaxpu=1.2 model=1 kW=9.9501 kvar=2.0204539791744063 Phases=2

New Load.load_p1ulv39363 conn=wye bus1=p1ulv39363.1.2.3 kV=0.48 Vminpu=0.8 Vmaxpu=1.2 model=1 kW=85.6809 kvar=17.398248795916057 Phases=3

New Load.load_p1ulv39402 conn=wye bus1=p1ulv39402.1.2 kV=0.2080002494301389 Vminpu=0.8 Vmaxpu=1.2 model=1 kW=4.22004 kvar=0.8591212600552419 Phases=2

New Load.load_p1ulv39427 conn=wye bus1=p1ulv39427.1.2 kV=0.2080002494301389 Vminpu=0.8 Vmaxpu=1.2 model=1 kW=9.5401 kvar=1.942186029765835 Phases=2

New Load.load_p1ulv39430 conn=wye bus1=p1ulv39430.1.2 kV=0.2080002494301389 Vminpu=0.8 Vmaxpu=1.2 model=1 kW=5.04005 kvar=1.0207856490641993 Phases=2

New Load.load_p1ulv39465 conn=wye bus1=p1ulv39465.1.2 kV=0.2080002494301389 Vminpu=0.8 Vmaxpu=1.2 model=1 kW=3.7500400000000003 kvar=0.7595136983594827 Phases=2

New Load.load_p1ulv39557 conn=wye bus1=p1ulv39557.1.2.3 kV=0.48 Vminpu=0.8 Vmaxpu=1.2 model=1 kW=71.9807 kvar=14.61630453349807 Phases=3

New Load.load_p1ulv40534 conn=wye bus1=p1ulv40534.1.2.3 kV=0.48 Vminpu=0.8 Vmaxpu=1.2 model=1 kW=20.7802 kvar=4.2195995797067365 Phases=3

New Load.load_p1ulv40596 conn=wye bus1=p1ulv40596.1.2 kV=0.2080002494301389 Vminpu=0.8 Vmaxpu=1.2 model=1 kW=4.60005 kvar=0.9292551513348608 Phases=2

New Load.load_p1ulv40618 conn=wye bus1=p1ulv40618.1.2.3 kV=0.48 Vminpu=0.8 Vmaxpu=1.2 model=1 kW=47.1105 kvar=9.566195031798259 Phases=3

New Load.load_p1ulv40621 conn=wye bus1=p1ulv40621.1.2.3 kV=0.48 Vminpu=0.8 Vmaxpu=1.2 model=1 kW=25.840299999999996 kvar=5.247096708380861 Phases=3

New Load.load_p1ulv40658 conn=wye bus1=p1ulv40658.1.2 kV=0.2080002494301389 Vminpu=0.8 Vmaxpu=1.2 model=1 kW=2.85003 kvar=0.5802128332421591 Phases=2

New Load.load_p1ulv40740 conn=wye bus1=p1ulv40740.1.2 kV=0.2080002494301389 Vminpu=0.8 Vmaxpu=1.2 model=1 kW=3.64004 kvar=0.739141647054201 Phases=2

New Load.load_p1ulv40769 conn=wye bus1=p1ulv40769.1.2.3 kV=0.48 Vminpu=0.8 Vmaxpu=1.2 model=1 kW=26.8703 kvar=5.456247128833886 Phases=3

New Load.load_p1ulv40772 conn=wye bus1=p1ulv40772.1.2 kV=0.2080002494301389 Vminpu=0.8 Vmaxpu=1.2 model=1 kW=4.33004 kvar=0.879252122891664 Phases=2

New Load.load_p1ulv40833 conn=wye bus1=p1ulv40833.1.2 kV=0.2080002494301389 Vminpu=0.8 Vmaxpu=1.2 model=1 kW=3.74004 kvar=0.7594475131176014 Phases=2

...